Version 4
SHEET 1 880 688
WIRE 368 304 208 304
WIRE 208 384 208 304
WIRE 208 384 112 384
WIRE 304 384 208 384
WIRE 112 432 112 384
WIRE 112 432 32 432
WIRE 304 432 304 384
WIRE 336 432 304 432
WIRE 32 480 32 432
WIRE 112 480 32 480
WIRE 336 480 336 432
WIRE 336 480 304 480
WIRE 208 512 160 512
WIRE 256 512 208 512
WIRE -64 528 -96 528
WIRE 208 528 208 512
WIRE 208 528 112 528
WIRE 304 560 304 528
WIRE -64 576 -64 528
WIRE -64 576 -96 576
FLAG 112 608 0
FLAG 304 560 0
FLAG 368 384 0
SYMBOL pmos4 256 432 R0
SYMATTR InstName M3
SYMBOL pmos4 160 432 M0
SYMATTR InstName M4
SYMBOL res 96 512 R0
SYMATTR InstName R2
SYMATTR Value 65k
SYMBOL voltage 368 288 R0
WINDOW 123 0 0 Left 0
WINDOW 39 0 0 Left 0
SYMATTR InstName V1
SYMATTR Value 1v
SYMBOL nmos4 -144 480 R0
SYMATTR InstName M5
TEXT -144 632 Left 2 ;.op
TEXT -144 672 Left 2 !.dc V1 0 1 0.1
